137

Mg        -7.088600       0.689911       0.134580
 C        -4.972770      -2.033459       0.518240
 C        -4.630850       2.720901       1.337870
 C        -9.162470       3.348201      -0.316140
 C        -9.596780      -1.460659      -0.965220
 N        -5.067270       0.364971       0.808570
 C        -4.383730      -0.825579       0.852230
 C        -2.940980      -0.613720       1.287860
 C        -2.973260       0.836570       1.835520
 C        -4.295020       1.369651       1.288830
 C        -2.923770       0.903300       3.370660
 C        -1.953870      -0.815470       0.119320
 C        -0.489160      -0.765640       0.550110
 C         0.476390      -1.012470      -0.593290
 O         0.167230      -1.381590      -1.700740
 O         1.744730      -0.776910      -0.215390
 N        -6.918820       2.693671       0.442580
 C        -5.833180       3.347601       0.939260
 C        -6.097550       4.776891       1.010620
 C        -7.385310       4.960971       0.531340
 C        -7.893550       3.631111       0.189460
 C        -5.151040       5.806651       1.543520
 C        -8.159800       6.190721       0.394130
 C        -7.693740       7.444991       0.254620
 N        -9.042940       0.903151      -0.533410
 C        -9.707180       2.087031      -0.648710
 C       -11.051670       1.862251      -1.154120
 C       -11.177920       0.499031      -1.333530
 C        -9.904250      -0.087839      -0.940990
 C       -12.067480       2.933371      -1.414050
 C       -12.362020      -0.255359      -1.871990
 C       -12.305780      -0.502799      -3.389450
 N        -7.292400      -1.295909      -0.169110
 C        -8.376890      -2.048959      -0.605990
 C        -8.031160      -3.461879      -0.624520
 C        -6.709300      -3.505879      -0.188230
 C        -6.310220      -2.164809       0.073390
 C        -8.910930      -4.603049      -1.025400
 C        -5.589820      -4.399479       0.102440
 O        -5.512600      -5.605009       0.051200
 C        -4.381930      -3.440909       0.529610
 C        -3.803670      -3.900240       1.855980
 O        -4.049460      -3.420149       2.937410
 O        -2.981880      -4.946160       1.677970
 C        -2.468250      -5.560390       2.858890
 C         2.769310      -1.016780      -1.206300
 C         4.094380      -0.717600      -0.583840
 C         5.074050       0.065980      -1.071880
 C         4.988310       0.826970      -2.372360
 C         6.375190       0.214020      -0.309950
 C         7.605290      -0.386000      -1.016150
 C         8.887360      -0.251280      -0.187350
 C        10.180600      -0.740720      -0.869270
 C        10.140230      -2.246240      -1.167620
 C        11.406450      -0.349890      -0.019570
 C        12.773630      -0.574900      -0.675960
 C        13.940080      -0.081780       0.188320
 C        15.340920      -0.193020      -0.446210
 C        15.740670      -1.651520      -0.711240
 C        16.377570       0.541730       0.426990
 C        17.776490       0.694990      -0.181460
 C        18.722000       1.525180       0.694390
 C        20.172620       1.642160       0.188850
 C        20.273670       2.366760      -1.160350
 C        21.057280       2.327490       1.238570
 H        -3.859130       3.380170       1.739380
 H        -9.821010       4.203311      -0.474120
 H       -10.387350      -2.135079      -1.300580
 H        -2.691330      -1.325140       2.091280
 H        -2.139080       1.434320       1.431910
 H        -1.966960       0.505420       3.745750
 H        -3.027390       1.938260       3.731880
 H        -3.735080       0.304610       3.814480
 H        -2.140540      -1.783350      -0.369630
 H        -2.140980      -0.053820      -0.656370
 H        -0.219690       0.196420       1.016050
 H        -0.281470      -1.529050       1.321710
 H        -4.531020       6.254101       0.745870
 H        -5.696950       6.631011       2.027490
 H        -4.461220       5.378881       2.286340
 H        -9.248130       6.061311       0.399590
 H        -8.384830       8.287741       0.170510
 H        -6.628510       7.676071       0.194100
 H       -11.745970       3.615121      -2.220330
 H       -13.036030       2.507961      -1.713960
 H       -12.243330       3.555761      -0.520450
 H       -12.454990      -1.222809      -1.350120
 H       -13.285260       0.297571      -1.632000
 H       -13.191990      -1.061109      -3.732670
 H       -12.266850       0.447921      -3.944440
 H       -11.410720      -1.081869      -3.666790
 H        -9.249890      -4.506789      -2.070950
 H        -8.370350      -5.554399      -0.926810
 H        -9.816860      -4.656179      -0.398060
 H        -3.603490      -3.595190      -0.236880
 H        -1.881870      -4.842710       3.453030
 H        -3.287230      -5.943980       3.485930
 H        -1.831380      -6.387050       2.520970
 H         2.699000      -2.073870      -1.519190
 H         2.555390      -0.410880      -2.098190
 H         4.264090      -1.223620       0.374060
 H         3.975580       0.847390      -2.796740
 H         5.319560       1.869890      -2.229880
 H         5.655100       0.389540      -3.135300
 H         6.562840       1.290010      -0.129830
 H         6.270390      -0.253250       0.683310
 H         7.398370      -1.446770      -1.237070
 H         7.755770       0.107560      -1.992850
 H         9.017220       0.812350       0.083580
 H         8.761580      -0.789340       0.771630
 H        10.265930      -0.206040      -1.836030
 H         9.285530      -2.515400      -1.806790
 H        11.048940      -2.584820      -1.688000
 H        10.054540      -2.828140      -0.233090
 H        11.318590       0.719070       0.247250
 H        11.366740      -0.899660       0.940330
 H        12.905530      -1.645330      -0.902600
 H        12.798310      -0.052570      -1.651080
 H        13.759200       0.977050       0.448570
 H        13.938310      -0.628460       1.150830
 H        15.302730       0.329920      -1.422360
 H        15.795000      -2.220210       0.233780
 H        15.018290      -2.162460      -1.365920
 H        16.724000      -1.724370      -1.200250
 H        15.986040       1.549270       0.657600
 H        16.456460       0.023710       1.402060
 H        18.228940      -0.298280      -0.349550
 H        17.681420       1.158000      -1.179740
 H        18.305190       2.542780       0.822740
 H        18.740700       1.082320       1.707090
 H        20.557020       0.613360       0.047450
 H        19.877600       3.394770      -1.085130
 H        21.321890       2.439700      -1.493270
 H        19.712420       1.850300      -1.954330
 H        21.032740       1.790600       2.200960
 H        22.107860       2.378590       0.909070
 H        20.717990       3.361070       1.426460
