96

 C        12.248209       0.601370      -0.520851
 C       -12.203581      -0.060890       0.783949
 C        13.511589      -0.282440      -0.392971
 C       -13.091811       1.110460       1.262989
 C        13.208979      -1.771020      -0.532731
 C       -13.380281       2.128750       0.165299
 C        11.049369      -0.005510       0.255529
 C       -10.991041       0.457320      -0.034781
 C        12.273399      -2.193630       0.596709
 C       -12.067331       2.727420      -0.338361
 C        11.109759      -1.251830       0.813729
 C       -10.967021       1.712720      -0.575091
 C        11.864829       0.756600      -2.011851
 C        12.618309       1.997300       0.036589
 C       -13.039191      -1.030960      -0.086451
 C       -11.726921      -0.814990       2.046809
 C         9.871759       0.853600       0.337049
 C        -9.927781      -0.526480      -0.218741
 C        10.069149      -1.821210       1.746909
 C        -9.865801       2.228230      -1.470171
 C         8.559859       0.461820       0.285919
 C        -8.575791      -0.310990      -0.225191
 C         7.415119       1.323530       0.347939
 C        -7.559641      -1.311630      -0.385521
 C         7.621949       2.805570       0.536849
 C        -7.968651      -2.742680      -0.628401
 C         6.154559       0.751230       0.227859
 C        -6.231161      -0.914780      -0.305041
 C         4.893479       1.385580       0.258289
 C        -5.066281      -1.704990      -0.422001
 C         3.696609       0.693760       0.125759
 C        -3.787341      -1.175190      -0.320681
 C         2.398869       1.257460       0.149629
 C        -2.563151      -1.880600      -0.419611
 C         2.249609       2.750410       0.341399
 C        -2.588301      -3.370790      -0.662751
 C         1.226369       0.493760       0.003929
 C        -1.370001      -1.157700      -0.282471
 C         1.122089      -0.891770      -0.196431
 C        -0.054531      -1.643390      -0.333071
 H        13.969799      -0.111300       0.591129
 H        14.246909       0.043950      -1.138751
 H       -12.584471       1.621730       2.092739
 H       -14.023831       0.702300       1.673939
 H        14.132689      -2.360350      -0.504631
 H        12.737749      -1.973220      -1.502371
 H       -14.039991       2.921280       0.537059
 H       -13.909661       1.649190      -0.666811
 H        12.840159      -2.280750       1.538929
 H        11.876349      -3.203030       0.413419
 H       -11.700201       3.473120       0.387219
 H       -12.237751       3.293110      -1.263751
 H        11.668659      -0.212400      -2.481091
 H        12.671729       1.247370      -2.568851
 H        10.959149       1.360760      -2.121631
 H        12.771629       1.964130       1.120359
 H        11.860089       2.755170      -0.178961
 H        13.551629       2.339550      -0.424661
 H       -13.449361      -0.531860      -0.968951
 H       -13.874341      -1.440460       0.493909
 H       -12.440091      -1.876690      -0.438351
 H       -11.072691      -0.184230       2.657319
 H       -11.176751      -1.728340       1.805219
 H       -12.590071      -1.100250       2.659489
 H        10.064089       1.922410       0.365459
 H       -10.260341      -1.560710      -0.279631
 H         9.425709      -1.056280       2.183439
 H        10.565999      -2.363830       2.562129
 H         9.424389      -2.555980       1.244009
 H        -9.277601       1.427760      -1.920601
 H        -9.171311       2.883640      -0.924811
 H       -10.291361       2.839660      -2.275071
 H         8.342289      -0.595240       0.152229
 H        -8.213231       0.700030      -0.056021
 H         8.187799       3.009610       1.453729
 H         6.682989       3.356480       0.597429
 H         8.201019       3.230400      -0.293061
 H        -8.611991      -2.822760      -1.512721
 H        -8.544231      -3.137160       0.218849
 H        -7.114211      -3.402690      -0.780211
 H         6.132699      -0.330950       0.093049
 H        -6.060571       0.147770      -0.126811
 H         4.855639       2.462730       0.391219
 H        -5.172181      -2.771690      -0.595911
 H         3.775109      -0.383190      -0.006921
 H        -3.711781      -0.101870      -0.143811
 H         2.694779       3.081900       1.287719
 H         1.197869       3.046810       0.346499
 H         2.750059       3.311190      -0.457871
 H        -3.138281      -3.608860      -1.580951
 H        -3.093841      -3.895060       0.157389
 H        -1.589751      -3.797300      -0.759641
 H         0.295949       1.055270       0.051199
 H        -1.495061      -0.089540      -0.113331
 H         2.045149      -1.462830      -0.258071
 H         0.087269      -2.708990      -0.490711
