18

 C        -3.645429      -0.275170       0.000332
 C        -2.268833      -0.273334       0.000149
 C        -1.541030       0.947262       0.000239
 C        -2.265520       2.184505       0.000516
 C        -3.686117       2.147120       0.000694
 C        -4.361413       0.947533       0.000607
 H         0.426968       0.044730      -0.000160
 H        -4.189247      -1.216041       0.000265
 H        -1.716912      -1.210601      -0.000062
 C        -0.120430       0.984646       0.000059
 C        -1.537722       3.405111       0.000603
 H        -4.233523       3.087031       0.000908
 H        -5.448046       0.933681       0.000750
 C        -0.161130       3.406941       0.000423
 C         0.554855       2.184238       0.000151
 H        -2.089652       4.342370       0.000811
 H         0.382706       4.347803       0.000495
 H         1.641487       2.198098       0.000011
