98

 O       -13.966890      -2.128450       1.075400
 O        14.677100       1.004199       0.864520
 C       -11.787640       0.234040       1.253890
 C       -10.941190       0.128980      -0.047570
 C       -11.930410      -1.167960       1.868440
 C       -12.544380      -2.208300       0.937880
 C       -11.442050      -0.979100      -0.962490
 C        11.118350      -0.003701       1.771760
 C       -11.106060       1.158790       2.266950
 C       -13.161840       0.828520       0.911770
 C        12.472470       0.719149       1.865550
 C       -12.128390      -2.021320      -0.494720
 C        13.432070       0.330229       0.755620
 C        10.610590      -0.031451       0.319830
 C        -9.466660      -0.082200       0.192950
 C        12.829180       0.722129      -0.575770
 C        11.381330       0.321749      -0.727010
 C        10.132040       0.748229       2.683460
 C        11.247190      -1.447971       2.290740
 C       -11.082330      -0.845790      -2.414320
 C        -8.507620       0.759140      -0.208600
 C         9.215320      -0.488721       0.153650
 C        10.903280       0.409479      -2.152410
 C        -7.067280       0.589890      -0.016280
 C         8.812500      -1.464411      -0.672810
 C        -6.596170      -0.655831       0.680520
 C         7.427030      -1.915151      -0.862440
 C        -6.242100       1.558979      -0.470270
 C         7.274970      -3.379431      -1.179830
 C         6.395220      -1.049851      -0.764830
 C        -4.799890       1.607259      -0.388000
 C         4.984280      -1.347971      -0.872930
 C        -4.074890       2.644139      -0.848140
 C        -2.617480       2.767249      -0.823440
 C         4.030330      -0.399161      -0.797820
 C         2.595040      -0.610001      -0.892710
 C        -2.102550       4.181969      -0.769160
 C        -1.819660       1.675509      -0.863220
 C         1.779170       0.468569      -0.807040
 C         2.100750      -2.017261      -1.085300
 C        -0.379800       1.639869      -0.794680
 C         0.340660       0.501359      -0.880190
 H       -11.048290       1.080960      -0.584870
 H       -12.544460      -1.122710       2.773380
 H       -10.940890      -1.522180       2.178680
 H       -12.219060      -3.206660       1.271030
 H       -10.138820       0.769260       2.593810
 H       -10.933610       2.151280       1.838280
 H       -11.739060       1.281880       3.151110
 H       -13.693950       0.232000       0.171530
 H       -13.791390       0.871180       1.805070
 H       -13.049230       1.848940       0.530200
 H        12.321770       1.803639       1.804710
 H        12.919490       0.515119       2.847410
 H       -12.443910      -2.800300      -1.189660
 H        13.592960      -0.758261       0.769250
 H        -9.195920      -1.002710       0.705410
 H        13.416920       0.289869      -1.393820
 H        12.926410       1.811209      -0.684400
 H         9.192990       0.205819       2.814150
 H         9.904080       1.742089       2.286990
 H        10.572880       0.876249       3.676950
 H        11.992630      -2.015931       1.728000
 H        10.295160      -1.977081       2.200110
 H        11.539190      -1.452991       3.346170
 H       -10.001860      -0.720600      -2.537220
 H       -11.554880       0.042870      -2.848330
 H       -11.398340      -1.716770      -2.992430
 H       -14.363640      -2.666150       0.379690
 H         8.466330      -0.027601       0.793700
 H        -8.805430       1.670390      -0.726540
 H        11.319240      -0.403551      -2.759120
 H         9.818800       0.373689      -2.240560
 H        11.261570       1.342549      -2.602210
 H        15.079860       0.750539       1.703150
 H         9.570290      -2.008061      -1.235920
 H        -5.512480      -0.700671       0.776110
 H        -7.023040      -0.719560       1.686830
 H        -6.923330      -1.549140       0.138560
 H        -6.704880       2.416499      -0.956990
 H         7.574130      -3.997441      -0.326050
 H         6.257930      -3.655511      -1.456680
 H         7.932050      -3.655551      -2.011640
 H         6.637450      -0.002071      -0.599170
 H        -4.280520       0.778049       0.082880
 H         4.690220      -2.383041      -1.014080
 H        -4.614480       3.500669      -1.252870
 H         4.346320       0.633029      -0.652480
 H        -1.023500       4.251929      -0.901270
 H        -2.358970       4.653809       0.185600
 H        -2.572630       4.784399      -1.553830
 H        -2.302280       0.706739      -0.974590
 H         2.256200       1.438019      -0.669000
 H         2.431730      -2.659101      -0.262450
 H         1.014940      -2.077971      -1.138480
 H         2.504730      -2.445861      -2.008290
 H         0.156550       2.575849      -0.660560
 H        -0.195850      -0.434901      -1.010940
