81

 O        -4.254892      -4.886288       1.819716
 O         2.989713      -4.856932       1.078627
 O         6.956957      -1.557303       1.873205
 O         3.799425      -3.119750      -0.076606
 O         7.594634      -0.541049      -0.019673
 O        -3.034139       2.389492      -0.394386
 N        -0.260053      -0.498069      -0.589871
 N         1.545073       1.845675      -0.374224
 N        -3.280110      -3.138870       0.676814
 N        -0.795043       2.898506      -0.081542
 C         0.647357      -2.380416      -1.417049
 C         0.940977      -1.057683      -0.971511
 C        -0.738713      -2.596378      -1.259373
 C        -1.295780      -1.406886      -0.708700
 C         3.785392       1.518335      -0.277332
 C         2.498942       0.881745      -0.558150
 C         2.227498      -0.437421      -0.895254
 C         3.533599       2.831978       0.090097
 C         1.625949      -3.352987      -2.016544
 C        -5.490933      -2.803851       1.347357
 C        -3.581407      -1.860241       0.210682
 C         2.096879       3.030058       0.033766
 C        -4.993037      -1.620361       0.519561
 C         5.107381       0.810831      -0.340413
 C        -2.631843      -1.024446      -0.355262
 C        -1.493379      -3.792469      -1.766832
 C        -4.313316      -3.777682       1.338744
 C         2.068663      -4.489763      -1.077732
 C         5.371976      -0.118765       0.854528
 C         4.509387       3.891507       0.497997
 C         1.273216       4.124497       0.322794
 C        -6.793494      -3.472202       0.899379
 C        -5.794194      -0.592160       0.138331
 C        -0.140807       4.037502       0.241881
 C        -1.089014       5.154663       0.465345
 C        -2.335263       4.644986       0.240940
 C         3.034180      -4.053298       0.003108
 C        -5.462905       0.587114      -0.705352
 C         6.751210      -0.735304       0.821018
 C        -3.684571       5.289415       0.284893
 C        -2.144484       3.200390      -0.112302
 C        -0.684089       6.543300       0.849484
 C        -4.294374       5.520433      -1.109085
 H        -0.394151       0.401342      -0.132603
 H         3.076390      -1.098588      -1.059126
 H         2.521187      -2.824034      -2.374529
 H         1.169938      -3.818891      -2.906399
 H        -5.602727      -2.493753       2.404601
 H         5.174875       0.216186      -1.266527
 H         5.924326       1.544719      -0.404254
 H        -2.867823       0.042097      -0.446025
 H         0.517694       1.861561      -0.525545
 H        -1.472642      -4.654295      -1.074902
 H        -2.548890      -3.554136      -1.958669
 H        -1.058201      -4.149312      -2.714107
 H        -2.346137      -3.532693       0.653348
 H         1.211707      -4.993017      -0.606101
 H         2.598956      -5.268931      -1.656181
 H         4.647670      -0.948366       0.892639
 H         5.266546       0.419613       1.811969
 H         4.384744       4.805836      -0.106282
 H         5.549083       3.554668       0.382104
 H         4.369674       4.185279       1.552831
 H         1.732214       5.068226       0.619248
 H        -7.654317      -2.799165       1.027304
 H        -6.969361      -4.376179       1.501596
 H        -6.743030      -3.765839      -0.160884
 H        -6.824777      -0.640915       0.509989
 H        -4.900279       1.361791      -0.147387
 H        -6.376226       1.059250      -1.096839
 H        -4.806880       0.328378      -1.552352
 H        -3.630145       6.245949       0.831235
 H        -4.365618       4.636681       0.859737
 H        -0.108555       6.554346       1.791584
 H        -1.558897       7.195453       0.986483
 H        -0.041680       7.007143       0.080429
 H        -3.670930       6.203743      -1.707975
 H        -5.302928       5.958839      -1.031228
 H        -4.375231       4.568297      -1.654920
 H         3.665995      -4.537875       1.702176
 H         7.859754      -1.906110       1.776170
